OPT_V9/Results/My_campus_w_initial_sub_3_active_25_03_11_44/powerflow_results_t2.txt
Pandapower Network Debug Info
==================================================

BUS:
       vm_pu  va_degree      p_mw    q_mvar
0   0.992990   0.106639  0.000822  0.001179
1   0.988477   0.184175  0.001384  0.002322
2   0.984501   0.237573  0.002205  0.002722
3   0.989357   0.151295  0.002792  0.003324
4   0.989820   0.168185  0.003164  0.004356
5   0.990933   0.159004  0.004131  0.006807
6   0.989313   0.155141  0.001182  0.000846
7   0.997518   0.038192  0.001609  0.002200
8   0.997887   0.034840  0.001960  0.003016
9   0.999881   0.000775  0.010899  0.009749
10  0.999868   0.000847  0.011624  0.010558
11  0.999857   0.000908  0.011709  0.011293
12  0.999765   0.001458  0.010859  0.007088
13  0.999747   0.001553  0.010404  0.010369
14  0.999736   0.001550  0.014927  0.011529
15  0.999927   0.000557  0.000000  0.000000
16  0.999927   0.000563  0.000000  0.000000
17  0.999770   0.001486  0.000000  0.000000
18  0.999770   0.001496  0.000000  0.000000
19  1.000000   0.000000 -0.041577 -0.046241
20  1.000000   0.000006  0.000000  0.000000
21  1.000000   0.000000 -0.048395 -0.051318
22  1.000000   0.000007  0.000000  0.000000
--------------------------------------------------

LINE:
    p_from_mw  q_from_mvar   p_to_mw  q_to_mvar         pl_mw       ql_mvar  i_from_ka   i_to_ka      i_ka  vm_from_pu  va_from_degree  vm_to_pu  va_to_degree  loading_percent
0    0.041567     0.042241 -0.041563  -0.042238  3.435308e-06  2.678566e-06   0.002281  0.002281  0.002281    1.000000        0.000006  0.999927      0.000557         0.991754
1    0.048385     0.047318 -0.048372  -0.047308  1.231977e-05  9.605929e-06   0.002605  0.002605  0.002605    1.000000        0.000007  0.999770      0.001486         1.132547
2    0.034234     0.031601 -0.034233  -0.031600  1.678768e-06  1.308963e-06   0.001793  0.001793  0.001793    0.999927        0.000557  0.999881      0.000775         0.779734
3    0.010859     0.007088 -0.010859  -0.007088  5.817753e-08  4.536198e-08   0.000499  0.000499  0.000499    0.999770        0.001486  0.999765      0.001458         0.217056
4    0.025332     0.021899 -0.025332  -0.021898  6.133878e-07  4.782686e-07   0.001289  0.001289  0.001289    0.999770        0.001486  0.999747      0.001553         0.560501
5    0.007319     0.009637 -0.007251  -0.009584  6.850336e-05  5.341320e-05   0.017468  0.017468  0.017468    0.999927        0.000563  0.992990      0.106639         7.594763
6    0.005383     0.007708 -0.005315  -0.007654  6.860664e-05  5.349372e-05   0.013573  0.013573  0.013573    0.999770        0.001496  0.990933      0.159004         5.901397
7    0.001614     0.002204 -0.001609  -0.002200  5.044666e-06  3.933409e-06   0.003944  0.003944  0.003944    0.999770        0.001496  0.997518      0.038192         1.714828
8    0.005174     0.007411 -0.005159  -0.007400  1.405102e-05  1.095581e-05   0.013048  0.013048  0.013048    0.999770        0.001496  0.997887      0.034840         5.673096
9   -0.023334    -0.021851  0.023334   0.021851  3.534917e-07  2.756233e-07   0.001231  0.001231  0.001231    0.999868        0.000847  0.999881      0.000775         0.535036
10  -0.011709    -0.011293  0.011709   0.011293  1.294608e-07  1.009427e-07   0.000626  0.000626  0.000626    0.999857        0.000908  0.999868      0.000847         0.272274
11  -0.014927    -0.011529  0.014927   0.011529  1.740700e-07  1.357253e-07   0.000726  0.000726  0.000726    0.999736        0.001550  0.999747      0.001553         0.315717
12  -0.003600    -0.005052  0.003624   0.005071  2.330597e-05  1.817205e-05   0.009059  0.009059  0.009059    0.988477        0.184175  0.992990      0.106639         3.938782
13  -0.002792    -0.003324  0.002805   0.003334  1.285420e-05  1.002263e-05   0.006333  0.006333  0.006333    0.989357        0.151295  0.992990      0.106639         2.753521
14  -0.002205    -0.002722  0.002216   0.002731  1.144999e-05  8.927746e-06   0.005135  0.005135  0.005135    0.984501        0.237573  0.988477      0.184175         2.232684
15   0.003200     0.004384 -0.003164  -0.004356  3.599579e-05  2.806651e-05   0.007851  0.007851  0.007851    0.997887        0.034840  0.989820      0.168185         3.413312
16  -0.001182    -0.000846  0.001184   0.000847  1.878242e-06  1.464496e-06   0.002120  0.002120  0.002120    0.989313        0.155141  0.990933      0.159004         0.921749
--------------------------------------------------

TRAFO:
    p_hv_mw  q_hv_mvar   p_lv_mw  q_lv_mvar    pl_mw   ql_mvar   i_hv_ka   i_lv_ka  vm_hv_pu  va_hv_degree  vm_lv_pu  va_lv_degree  loading_percent
0  0.007329   0.010637 -0.007319  -0.009637  0.00001  0.001000  0.000497  0.017468  0.999927      0.000557  0.999927      0.000563         0.129183
1  0.012181   0.018322 -0.012171  -0.017323  0.00001  0.000999  0.000847  0.030565  0.999770      0.001486  0.999770      0.001496         0.220068
2  0.041577   0.046241 -0.041567  -0.042241  0.00001  0.004000  0.000513  0.002281  1.000000      0.000000  1.000000      0.000006         0.155460
3  0.048395   0.051318 -0.048385  -0.047318  0.00001  0.004000  0.000582  0.002605  1.000000      0.000000  1.000000      0.000007         0.176344
--------------------------------------------------
